model/wecc240_osp.glm
// JSON to GLM Converter Output
// InputFile '/Users/david/GitHub/dchassin/regrow/model/wecc240_osp.json'
// CreateDate '2025-04-22 08:43:38 '


// CLOCK
clock {
	timezone UTC0;
	starttime "2020-08-01 01:00:00 PDT";
	stoptime "2020-09-01 01:00:00 PDT";
}

// MODULES
module pypower
{
	default_reactive_power_fraction +0.2 pu;
	minimum_voltage_deadband +0.002 pu;
	version 2;
	solver_method NR;
	maximum_timestep +3600 s;
	baseMVA +100 MVA;
	enable_opf FALSE;
	stop_on_failure FALSE;
	save_case FALSE;
	controllers wecc240_controllers;
	solver_update_resolution +1e-08;
	maximum_iterations 50;
	solution_tolerance +0;
	solver_status SUCCESS;
	enforce_q_limits FALSE;
	use_dc_powerflow FALSE;
	save_format CSV;
	total_loss +7.62236e+08 MW;
	generation_shortfall +326593 MW;
	with_emissions FALSE;
	maximum_iterations_opf 10;
	opf_feasibility_tolerance +1.3;
	opf_gradient_tolerance +3;
	opf_condition_tolerance +1000;
	opf_cost_tolerance +0.01;
}

// GLOBALS
// version.major is set to 4
// version.minor is set to 3
// version.patch is set to 14
// version.build is set to 250414
// version.branch is set to develop
// version is set to 4.3.14-250414-develop
// command_line is set to /usr/local/opt/gridlabd/4.3.14-250414-develop-ubuntu_24-x86_64/bin/gridlabd.bin wecc240.glm
#ifndef environment
#define environment=batch
#else
#set environment=batch
#endif //environment
#ifndef quiet
global bool quiet FALSE;
#else
#set quiet=FALSE
#endif //quiet
#ifndef warn
global bool warn TRUE;
#else
#set warn=TRUE
#endif //warn
#ifndef debugger
global bool debugger FALSE;
#else
#set debugger=FALSE
#endif //debugger
#ifndef gdb
global bool gdb FALSE;
#else
#set gdb=FALSE
#endif //gdb
#ifndef debug
global bool debug FALSE;
#else
#set debug=FALSE
#endif //debug
#ifndef test
global bool test FALSE;
#else
#set test=FALSE
#endif //test
#ifndef verbose
global bool verbose FALSE;
#else
#set verbose=FALSE
#endif //verbose
#ifndef iteration_limit
global int32 iteration_limit 100;
#else
#set iteration_limit=100
#endif //iteration_limit
// workdir is set to /app/model
#ifndef dumpfile
#define dumpfile=gridlabd.json
#else
#set dumpfile=gridlabd.json
#endif //dumpfile
#ifndef savefile
#define savefile=wecc240.json
#else
#set savefile=wecc240.json
#endif //savefile
#ifndef dumpall
global bool dumpall FALSE;
#else
#set dumpall=FALSE
#endif //dumpall
#ifndef runchecks
global bool runchecks FALSE;
#else
#set runchecks=FALSE
#endif //runchecks
#ifndef threadcount
global int32 threadcount 1;
#else
#set threadcount=1
#endif //threadcount
#ifndef profiler
global bool profiler FALSE;
#else
#set profiler=FALSE
#endif //profiler
#ifndef pauseatexit
global bool pauseatexit FALSE;
#else
#set pauseatexit=FALSE
#endif //pauseatexit
#ifndef testoutputfile
#define testoutputfile=test.txt
#else
#set testoutputfile=test.txt
#endif //testoutputfile
#ifndef xml_encoding
global int32 xml_encoding 8;
#else
#set xml_encoding=8
#endif //xml_encoding
#ifndef clock
global timestamp clock "2020-09-01 01:00:00 PDT";
#else
#set clock=2020-09-01 01:00:00 PDT
#endif //clock
#ifndef starttime
global timestamp starttime "2020-08-01 01:00:00 PDT";
#else
#set starttime=2020-08-01 01:00:00 PDT
#endif //starttime
#ifndef stoptime
global timestamp stoptime "2020-09-01 01:00:00 PDT";
#else
#set stoptime=2020-09-01 01:00:00 PDT
#endif //stoptime
#ifndef double_format
global char32 double_format "%+lg";
#else
#set double_format=%+lg
#endif //double_format
#ifndef complex_format
global char256 complex_format "%+lg%+lg%c";
#else
#set complex_format=%+lg%+lg%c
#endif //complex_format
#ifndef complex_output_format
global enumeration complex_output_format DEFAULT;
#else
#set complex_output_format=DEFAULT
#endif //complex_output_format
#ifndef object_format
global char32 object_format "%s:%d";
#else
#set object_format=%s:%d
#endif //object_format
#ifndef object_scan
global char32 object_scan "%[^:]:%d";
#else
#set object_scan=%[^:]:%d
#endif //object_scan
#ifndef object_tree_balance
global bool object_tree_balance FALSE;
#else
#set object_tree_balance=FALSE
#endif //object_tree_balance
// kmlfile is set to 
#ifndef kmlhost
#define kmlhost=https://code.arras.energy/develop/runtime
#else
#set kmlhost=https://code.arras.energy/develop/runtime
#endif //kmlhost
// modelname is set to wecc240.glm
// execdir is set to /usr/local/opt/gridlabd/4.3.14-250414-develop-ubuntu_24-x86_64/bin
#ifndef strictnames
global bool strictnames TRUE;
#else
#set strictnames=TRUE
#endif //strictnames
#ifndef website
#define website=http://www.gridlabd.org/
#else
#set website=http://www.gridlabd.org/
#endif //website
#ifndef urlbase
#define urlbase=http://www.gridlabd.org/
#else
#set urlbase=http://www.gridlabd.org/
#endif //urlbase
#ifndef randomstate
global int32 randomstate 79764660;
#else
#set randomstate=79764660
#endif //randomstate
#ifndef randomseed
global int32 randomseed 79764660;
#else
#set randomseed=79764660
#endif //randomseed
// include is set to 
// trace is set to 
#ifndef gdb_window
global bool gdb_window FALSE;
#else
#set gdb_window=FALSE
#endif //gdb_window
#ifndef tmp
#define tmp=/root/.gridlabd/tmp
#else
#set tmp=/root/.gridlabd/tmp
#endif //tmp
#ifndef force_compile
global int32 force_compile 0;
#else
#set force_compile=0
#endif //force_compile
#ifndef nolocks
global bool nolocks FALSE;
#else
#set nolocks=FALSE
#endif //nolocks
#ifndef skipsafe
global bool skipsafe FALSE;
#else
#set skipsafe=FALSE
#endif //skipsafe
#ifndef dateformat
global enumeration dateformat ISO;
#else
#set dateformat=ISO
#endif //dateformat
#ifndef init_sequence
global enumeration init_sequence DEFERRED;
#else
#set init_sequence=DEFERRED
#endif //init_sequence
#ifndef minimum_timestep
global int32 minimum_timestep 1;
#else
#set minimum_timestep=1
#endif //minimum_timestep
// platform is set to LINUX
#ifndef suppress_repeat_messages
global bool suppress_repeat_messages TRUE;
#else
#set suppress_repeat_messages=TRUE
#endif //suppress_repeat_messages
#ifndef maximum_synctime
global int32 maximum_synctime 60;
#else
#set maximum_synctime=60
#endif //maximum_synctime
#ifndef run_realtime
global bool run_realtime FALSE;
#else
#set run_realtime=FALSE
#endif //run_realtime
#ifndef enter_realtime
global timestamp enter_realtime "NEVER";
#else
#set enter_realtime=NEVER
#endif //enter_realtime
// realtime_metric is set to +0
#ifndef no_deprecate
global bool no_deprecate FALSE;
#else
#set no_deprecate=FALSE
#endif //no_deprecate
// streaming_io is set to FALSE
// compileonly is set to FALSE
// initializeonly is set to FALSE
#ifndef relax_naming_rules
global bool relax_naming_rules FALSE;
#else
#set relax_naming_rules=FALSE
#endif //relax_naming_rules
#ifndef browser
#define browser=firefox
#else
#set browser=firefox
#endif //browser
#ifndef server_portnum
global int32 server_portnum 0;
#else
#set server_portnum=0
#endif //server_portnum
#ifndef server_quit_on_close
global bool server_quit_on_close FALSE;
#else
#set server_quit_on_close=FALSE
#endif //server_quit_on_close
// client_allowed is set to 
#ifndef autoclean
global bool autoclean TRUE;
#else
#set autoclean=TRUE
#endif //autoclean
#ifndef technology_readiness_level
global enumeration technology_readiness_level UNKNOWN;
#else
#set technology_readiness_level=UNKNOWN
#endif //technology_readiness_level
#ifndef show_progress
global bool show_progress TRUE;
#else
#set show_progress=TRUE
#endif //show_progress
#ifndef checkpoint_type
global enumeration checkpoint_type NONE;
#else
#set checkpoint_type=NONE
#endif //checkpoint_type
// checkpoint_file is set to 
#ifndef checkpoint_seqnum
global int32 checkpoint_seqnum 0;
#else
#set checkpoint_seqnum=0
#endif //checkpoint_seqnum
#ifndef checkpoint_interval
global int32 checkpoint_interval 0;
#else
#set checkpoint_interval=0
#endif //checkpoint_interval
#ifndef checkpoint_keepall
global bool checkpoint_keepall FALSE;
#else
#set checkpoint_keepall=FALSE
#endif //checkpoint_keepall
#ifndef check_version
global bool check_version FALSE;
#else
#set check_version=FALSE
#endif //check_version
#ifndef random_number_generator
global enumeration random_number_generator RNG3;
#else
#set random_number_generator=RNG3
#endif //random_number_generator
#ifndef mainloop_state
global enumeration mainloop_state DONE;
#else
#set mainloop_state=DONE
#endif //mainloop_state
#ifndef pauseat
global timestamp pauseat "NEVER";
#else
#set pauseat=NEVER
#endif //pauseat
// infourl is set to http://docs.arras.energy/index.html?owner=arras-energy&project=gridlabd&search=
#ifndef hostname
#define hostname=localhost
#else
#set hostname=localhost
#endif //hostname
#ifndef hostaddr
global char32 hostaddr "127.0.0.1";
#else
#set hostaddr=127.0.0.1
#endif //hostaddr
#ifndef autostart_gui
global bool autostart_gui TRUE;
#else
#set autostart_gui=TRUE
#endif //autostart_gui
// master is set to 
#ifndef master_port
global int64 master_port 0;
#else
#set master_port=0
#endif //master_port
#ifndef multirun_mode
global enumeration multirun_mode STANDALONE;
#else
#set multirun_mode=STANDALONE
#endif //multirun_mode
#ifndef multirun_conn
global enumeration multirun_conn NONE;
#else
#set multirun_conn=NONE
#endif //multirun_conn
#ifndef signal_timeout
global int32 signal_timeout 5000;
#else
#set signal_timeout=5000
#endif //signal_timeout
#ifndef slave_port
global int16 slave_port 6267;
#else
#set slave_port=6267
#endif //slave_port
#ifndef slave_id
global int64 slave_id 0;
#else
#set slave_id=0
#endif //slave_id
// return_code is set to 0
// exit_code is set to 0
#ifndef module_compiler_flags
global set module_compiler_flags NONE;
#else
#set module_compiler_flags=NONE
#endif //module_compiler_flags
// init_max_defer is set to 64
#ifndef mt_analysis
global bool mt_analysis FALSE;
#else
#set mt_analysis=FALSE
#endif //mt_analysis
#ifndef inline_block_size
global int32 inline_block_size 1048576;
#else
#set inline_block_size=1048576
#endif //inline_block_size
#ifndef validate
global set validate TSTD|RALL;
#else
#set validate=TSTD|RALL
#endif //validate
#ifndef sanitize
global set sanitize NAMES|POSITIONS;
#else
#set sanitize=NAMES|POSITIONS
#endif //sanitize
#ifndef sanitize_prefix
global char8 sanitize_prefix "GLD_";
#else
#set sanitize_prefix=GLD_
#endif //sanitize_prefix
#ifndef sanitize_index
#define sanitize_index=.txt
#else
#set sanitize_index=.txt
#endif //sanitize_index
// sanitize_offset is set to 
#ifndef simulation_mode
global enumeration simulation_mode EVENT;
#else
#set simulation_mode=EVENT
#endif //simulation_mode
#ifndef deltamode_allowed
global bool deltamode_allowed FALSE;
#else
#set deltamode_allowed=FALSE
#endif //deltamode_allowed
#ifndef deltamode_timestep
global int32 deltamode_timestep 10000000;
#else
#set deltamode_timestep=10000000
#endif //deltamode_timestep
#ifndef deltamode_maximumtime
global int64 deltamode_maximumtime 3600000000000;
#else
#set deltamode_maximumtime=3600000000000
#endif //deltamode_maximumtime
#ifndef deltaclock
global int64 deltaclock 0;
#else
#set deltaclock=0
#endif //deltaclock
#ifndef delta_current_clock
global double delta_current_clock +0;
#else
#set delta_current_clock=+0
#endif //delta_current_clock
// deltamode_updateorder is set to 
#ifndef deltamode_iteration_limit
global int32 deltamode_iteration_limit 10;
#else
#set deltamode_iteration_limit=10
#endif //deltamode_iteration_limit
#ifndef deltamode_forced_extra_timesteps
global int32 deltamode_forced_extra_timesteps 0;
#else
#set deltamode_forced_extra_timesteps=0
#endif //deltamode_forced_extra_timesteps
#ifndef deltamode_forced_always
global bool deltamode_forced_always FALSE;
#else
#set deltamode_forced_always=FALSE
#endif //deltamode_forced_always
#ifndef run_powerworld
global bool run_powerworld FALSE;
#else
#set run_powerworld=FALSE
#endif //run_powerworld
#ifndef bigranks
global bool bigranks TRUE;
#else
#set bigranks=TRUE
#endif //bigranks
// exename is set to /usr/local/opt/gridlabd/4.3.14-250414-develop-ubuntu_24-x86_64/bin/gridlabd.bin
#ifndef wget_options
#define wget_options=maxsize:100MB;update:newer
#else
#set wget_options=maxsize:100MB;update:newer
#endif //wget_options
#ifndef curl_options
#define curl_options=maxsize:100MB;update:newer
#else
#set curl_options=maxsize:100MB;update:newer
#endif //curl_options
#ifndef svnroot
#define svnroot=https://github.com/arras-energy/gridlabd
#else
#set svnroot=https://github.com/arras-energy/gridlabd
#endif //svnroot
#ifndef github
#define github=https://github.com/arras-energy/gridlabd
#else
#set github=https://github.com/arras-energy/gridlabd
#endif //github
#ifndef gitraw
#define gitraw=https://raw.githubusercontent.com/arras-energy/gridlabd
#else
#set gitraw=https://raw.githubusercontent.com/arras-energy/gridlabd
#endif //gitraw
#ifndef allow_reinclude
global bool allow_reinclude FALSE;
#else
#set allow_reinclude=FALSE
#endif //allow_reinclude
#ifndef output_message_context
global set output_message_context ALL;
#else
#set output_message_context=ALL
#endif //output_message_context
#ifndef permissive_access
global int32 permissive_access 0;
#else
#set permissive_access=0
#endif //permissive_access
#ifndef relax_undefined_if
global bool relax_undefined_if FALSE;
#else
#set relax_undefined_if=FALSE
#endif //relax_undefined_if
#ifndef literal_if
global bool literal_if TRUE;
#else
#set literal_if=TRUE
#endif //literal_if
#ifndef validto_context
global enumeration validto_context SYNC;
#else
#set validto_context=SYNC
#endif //validto_context
#ifndef daemon_configfile
#define daemon_configfile=gridlabd.cnf
#else
#set daemon_configfile=gridlabd.cnf
#endif //daemon_configfile
// timezone_locale is set to UTC
#ifndef glm_save_options
global set glm_save_options MINIMAL;
#else
#set glm_save_options=MINIMAL
#endif //glm_save_options
#ifndef filesave_options
global set filesave_options ALL;
#else
#set filesave_options=ALL
#endif //filesave_options
#ifndef ignore_errors
global bool ignore_errors FALSE;
#else
#set ignore_errors=FALSE
#endif //ignore_errors
#ifndef keep_progress
global bool keep_progress FALSE;
#else
#set keep_progress=FALSE
#endif //keep_progress
#ifndef allow_variant_aggregates
global bool allow_variant_aggregates FALSE;
#else
#set allow_variant_aggregates=FALSE
#endif //allow_variant_aggregates
// progress is set to +0
#ifndef server_keepalive
global bool server_keepalive FALSE;
#else
#set server_keepalive=FALSE
#endif //server_keepalive
#ifndef pythonpath
#define pythonpath=.:/usr/local/opt/gridlabd/current/share/gridlabd:/usr/local/opt/gridlabd/current/lib/python3.10/site-packages
#else
#set pythonpath=.:/usr/local/opt/gridlabd/current/share/gridlabd:/usr/local/opt/gridlabd/current/lib/python3.10/site-packages
#endif //pythonpath
// pythonexec is set to /usr/local/opt/gridlabd/current/bin/python3
// datadir is set to /usr/local/opt/gridlabd/4.3.14-250414-develop-ubuntu_24-x86_64/share/gridlabd
// bindir is set to /usr/local/opt/gridlabd/4.3.14-250414-develop-ubuntu_24-x86_64/bin
// vardir is set to /usr/local/opt/gridlabd/4.3.14-250414-develop-ubuntu_24-x86_64/var/gridlabd
// libdir is set to /usr/local/opt/gridlabd/4.3.14-250414-develop-ubuntu_24-x86_64/lib/gridlabd
// incdir is set to /usr/local/opt/gridlabd/4.3.14-250414-develop-ubuntu_24-x86_64/include
// logfile is set to /tmp/gridlabd-log
// pidfile_dir is set to /tmp/gridlabd-pid
// configpath is set to /usr/local/opt/gridlabd/4.3.14-250414-develop-ubuntu_24-x86_64/share/gridlabd/solver_py.conf
#ifndef json_complex_format
global set json_complex_format STRING;
#else
#set json_complex_format=STRING
#endif //json_complex_format
#ifndef rusage_file
#define rusage_file=gridlabd-rusage.csv
#else
#set rusage_file=gridlabd-rusage.csv
#endif //rusage_file
#ifndef rusage_rate
global int64 rusage_rate 0;
#else
#set rusage_rate=0
#endif //rusage_rate
#ifndef rusage
#define rusage={"utime" : 19.279565, "stime" : 1.107334, "maxrss" : 67328, "ixrss" : 0, "idrss" : 0, "isrss" : 0, "minflt" : 254483, "majflt" : 0, "nswap" : 0, "inblock" : 0, "oublock" : 17749, "msgsnd" : 0, "msgrcv" : 0, "nsignals" : 0, "nvcsw" : 3866, "nivcsw" : 129}
#else
#set rusage={"utime" : 19.279565, "stime" : 1.107334, "maxrss" : 67328, "ixrss" : 0, "idrss" : 0, "isrss" : 0, "minflt" : 254483, "majflt" : 0, "nswap" : 0, "inblock" : 0, "oublock" : 17749, "msgsnd" : 0, "msgrcv" : 0, "nsignals" : 0, "nvcsw" : 3866, "nivcsw" : 129}
#endif //rusage
#ifndef echo
global bool echo FALSE;
#else
#set echo=FALSE
#endif //echo
// filename is set to 
#ifndef country
global char8 country "US";
#else
#set country=US
#endif //country
// region is set to 
#ifndef organization
global char32 organization "arras-energy";
#else
#set organization=arras-energy
#endif //organization
// profile_output_format is set to 
#ifndef maximum_runtime
global int64 maximum_runtime 0;
#else
#set maximum_runtime=0
#endif //maximum_runtime
#ifndef flush_output
global int32 flush_output 0;
#else
#set flush_output=0
#endif //flush_output
// origin is set to arras-energy/gridlabd
// gitbranch is set to develop
#ifndef VERSION
#define VERSION=-ge 4.3.14
#else
#set VERSION=-ge 4.3.14
#endif //VERSION
#ifndef TIMEZONE
#define TIMEZONE=PST+8PDT
#else
#set TIMEZONE=PST+8PDT
#endif //TIMEZONE
#ifndef STARTTIME
#define STARTTIME=2020-08-01 00:00:00 PST
#else
#set STARTTIME=2020-08-01 00:00:00 PST
#endif //STARTTIME
#ifndef STOPTIME
#define STOPTIME=2020-09-01 00:00:00 PST
#else
#set STOPTIME=2020-09-01 00:00:00 PST
#endif //STOPTIME
#ifndef MAXIMUM_ITERATIONS
#define MAXIMUM_ITERATIONS=50
#else
#set MAXIMUM_ITERATIONS=50
#endif //MAXIMUM_ITERATIONS
#ifndef MAXIMUM_TIMESTEP
#define MAXIMUM_TIMESTEP=3600
#else
#set MAXIMUM_TIMESTEP=3600
#endif //MAXIMUM_TIMESTEP
#ifndef STOP_ON_FAILURE
#define STOP_ON_FAILURE=TRUE
#else
#set STOP_ON_FAILURE=TRUE
#endif //STOP_ON_FAILURE
// pypower::message_flags is set to 
// pypower::default_reactive_power_fraction is set to +0.2 pu
// pypower::minimum_voltage_deadband is set to +0.002 pu
// pypower::timestamp_format is set to 
// pypower::version is set to 2
// pypower::solver_method is set to NR
// pypower::maximum_timestep is set to +3600 s
// pypower::baseMVA is set to +100 MVA
// pypower::enable_opf is set to FALSE
// pypower::stop_on_failure is set to FALSE
// pypower::save_case is set to FALSE
// pypower::controllers_path is set to 
// pypower::controllers is set to wecc240_controllers
// pypower::solver_update_resolution is set to +1e-08
// pypower::maximum_iterations is set to 50
// pypower::solution_tolerance is set to +0
// pypower::solver_status is set to SUCCESS
// pypower::enforce_q_limits is set to FALSE
// pypower::use_dc_powerflow is set to FALSE
// pypower::save_format is set to CSV
// pypower::total_loss is set to +7.62236e+08 MW
// pypower::generation_shortfall is set to +326593 MW
// pypower::with_emissions is set to FALSE
// pypower::maximum_iterations_opf is set to 10
// pypower::opf_feasibility_tolerance is set to +1.3
// pypower::opf_gradient_tolerance is set to +3
// pypower::opf_condition_tolerance is set to +1000
// pypower::opf_cost_tolerance is set to +0.01
#ifndef raw_load_options
#define raw_load_options=--exclude psse_owner,psse_area,psse_zone
#else
#set raw_load_options=--exclude psse_owner,psse_area,psse_zone
#endif //raw_load_options
#ifndef GEN
#define GEN=wecc240_psse_G_8034_1
#else
#set GEN=wecc240_psse_G_8034_1
#endif //GEN
#ifndef BRANCH
#define BRANCH=wecc240_psse_B_8004_8034_0
#else
#set BRANCH=wecc240_psse_B_8004_8034_0
#endif //BRANCH

// CLASSES// SCHEDULES



// OBJECTS
object bus
{
	name "wecc240_psse_N_1001";
	latitude "36.670897";
	longitude "-108.581419";
	rng_state "1804289383";
	guid "47A538C0D760FF8230EB61C66E204507";
	bus_i "1";
	S "0+0j MVA";
	type "PQREF";
	Pd "0 MW";
	Qd "0 MVAr";
	Gs "0 MW";
	Bs "0 MVAr";
	area "1";
	baseKV "500 kV";
	Vm "0.264468 pu.kV";
	Va "-133.128 deg";
	zone "3";
	Vmax "1.2 pu.kV";
	Vmin "0.8 pu.kV";
	weather_resolution "3600 s";
	Sn "0 W/m^2";
	Sh "0 W/m^2";
	Sg "0 W/m^2";
	Wd "0 deg";
	Ws "0 m/2";
	Td "0 degC";
	Tw "0 degC";
	RH "0 %";
	PW "0 in";
	HI "0 degF";
}
object bus
{
	name "wecc240_psse_N_1002";
	latitude "36.670897";
	longitude "-108.581419";
	rng_state "846930886";
	guid "100E71388A2CD2951DF51ECD36FFF889";
	bus_i "2";
	S "448.127+33.0128j MVA";
	type "PQREF";
	Pd "448.127 MW";
	Qd "33.0128 MVAr";
	Gs "0 MW";
	Bs "0 MVAr";
	area "1";
	baseKV "345 kV";
	Vm "0.783095 pu.kV";
	Va "82.0676 deg";
	zone "3";
	Vmax "1.2 pu.kV";
	Vmin "0.8 pu.kV";
	weather_resolution "3600 s";
	Sn "0 W/m^2";
	Sh "0 W/m^2";
	Sg "0 W/m^2";
	Wd "0 deg";
	Ws "0 m/2";
	Td "0 degC";
	Tw "0 degC";
	RH "0 %";
	PW "0 in";
	HI "0 degF";
}
object bus
{
	name "wecc240_psse_N_1003";
	latitude "36.670897";
	longitude "-108.581419";
	rng_state "1681692777";
	guid "3E4EB1AAE129CA7163BE8E5A5A86F85A";
	bus_i "3";
	S "4366.29-10.9715j MVA";
	type "PQREF";
	Pd "4366.29 MW";
	Qd "-10.9715 MVAr";
	Gs "0 MW";
	Bs "0 MVAr";
	area "1";
	baseKV "230 kV";
	Vm "0.546099 pu.kV";
	Va "30.5438 deg";
	zone "10";
	Vmax "1.2 pu.kV";
	Vmin "0.8 pu.kV";
	weather_resolution "3600 s";
	Sn "0 W/m^2";
	Sh "0 W/m^2";
	Sg "0 W/m^2";
	Wd "0 deg";
	Ws "0 m/2";
	Td "0 degC";
	Tw "0 degC";
	RH "0 %";
	PW "0 in";
	HI "0 degF";
}
object bus
{
	name "wecc240_psse_N_1004";
	latitude "36.910483";
	longitude "-108.278462";
	rng_state "1714636915";
	guid "2FFAF314069073F26F1F4D400E421085";
	bus_i "4";
	S "1990.53+334.817j MVA";
	type "PQREF";
	Pd "1990.53 MW";
	Qd "334.817 MVAr";
	Gs "0 MW";
	Bs "0 MVAr";
	area "1";
	baseKV "345 kV";
	Vm "0.057871 pu.kV";
	Va "162.261 deg";
	zone "10";
	Vmax "1.2 pu.kV";
	Vmin "0.8 pu.kV";
	weather_resolution "3600 s";
	Sn "0 W/m^2";
	Sh "0 W/m^2";
	Sg "0 W/m^2";
	Wd "0 deg";
	Ws "0 m/2";
	Td "0 degC";
	Tw "0 degC";
	RH "0 %";
	PW "0 in";
	HI "0 degF";
}
object bus
{
	name "wecc240_psse_N_1032";
	latitude "36.670897";
	longitude "-108.581419";
	rng_state "1957747793";
	guid "5B9801E10769D58135ED575B169E58FE";
	bus_i "5";
	S "0+0j MVA";
	type "PV";
	Pd "0 MW";
	Qd "0 MVAr";
	Gs "0 MW";
	Bs "0 MVAr";
	area "1";
	baseKV "20 kV";
	Vm "1.014 pu.kV";
	Va "83.7982 deg";
	zone "10";
	Vmax "1.2 pu.kV";
	Vmin "0.8 pu.kV";
	weather_resolution "3600 s";
	Sn "0 W/m^2";
	Sh "0 W/m^2";
	Sg "0 W/m^2";
	Wd "0 deg";
	Ws "0 m/2";
	Td "0 degC";
	Tw "0 degC";
	RH "0 %";
	PW "0 in";
	HI "0 degF";
}
object bus
{
	name "wecc240_psse_N_1034";
	latitude "36.910483";
	longitude "-108.278462";
	rng_state "424238335";
	guid "63689B8A33A187F35A44C5FE505B6BE0";
	bus_i "6";
	S "0+0j MVA";
	type "PV";
	Pd "0 MW";
	Qd "0 MVAr";
	Gs "0 MW";
	Bs "0 MVAr";
	area "1";
	baseKV "20 kV";
	Vm "1.03 pu.kV";
	Va "134.074 deg";
	zone "10";
	Vmax "1.2 pu.kV";
	Vmin "0.8 pu.kV";
	weather_resolution "3600 s";
	Sn "0 W/m^2";
	Sh "0 W/m^2";
	Sg "0 W/m^2";
	Wd "0 deg";
	Ws "0 m/2";
	Td "0 degC";
	Tw "0 degC";
	RH "0 %";
	PW "0 in";
	HI "0 degF";
}
object bus
{
	name "wecc240_psse_N_1101";
	latitude "35.131373";
	longitude "-109.690674";
	rng_state "719885386";
	guid "64C71F5FAD62522425CDE700AB160965";
	bus_i "7";
	S "8883.65-1063.65j MVA";
	type "PQREF";
	Pd "8883.65 MW";
	Qd "-1063.65 MVAr";
	Gs "0 MW";
	Bs "0 MVAr";
	area "1";
	baseKV "500 kV";
	Vm "0.0133005 pu.kV";
	Va "-18.9233 deg";
	zone "3";
	Vmax "1.2 pu.kV";
	Vmin "0.8 pu.kV";
	weather_resolution "3600 s";
	Sn "0 W/m^2";
	Sh "0 W/m^2";
	Sg "0 W/m^2";
	Wd "0 deg";
	Ws "0 m/2";
	Td "0 degC";
	Tw "0 degC";
	RH "0 %";
	PW "0 in";
	HI "0 degF";
}
object bus
{
	name "wecc240_psse_N_1102";
	latitude "34.940278";
	longitude "-110.300278";
	rng_state "1649760492";
	guid "2C651C7D40DF3C3D3E3A11007198FB0C";
	bus_i "8";
	S "358.186-14.8899j MVA";
	type "PQREF";
	Pd "358.186 MW";
	Qd "-14.8899 MVAr";
	Gs "0 MW";
	Bs "0 MVAr";
	area "1";
	baseKV "345 kV";
	Vm "0.237116 pu.kV";
	Va "-67.0074 deg";
	zone "3";
	Vmax "1.2 pu.kV";
	Vmin "0.8 pu.kV";
	weather_resolution "3600 s";
	Sn "0 W/m^2";
	Sh "0 W/m^2";
	Sg "0 W/m^2";
	Wd "0 deg";
	Ws "0 m/2";
	Td "0 degC";
	Tw "0 degC";
	RH "0 %";
	PW "0 in";
	HI "0 degF";
}
object bus
{
	name "wecc240_psse_N_1131";
	latitude "35.131373";
	longitude "-109.690674";
	rng_state "596516649";
	guid "2D9763F8B56BD354423EE554350D0EE6";
	bus_i "9";
	S "0+0j MVA";
	type "PV";
	Pd "0 MW";
	Qd "0 MVAr";
	Gs "0 MW";
	Bs "0 MVAr";
	area "1";
	baseKV "20 kV";
	Vm "1.01 pu.kV";
	Va "66.3107 deg";
	zone "3";
	Vmax "1.2 pu.kV";
	Vmin "0.8 pu.kV";
	weather_resolution "3600 s";
	Sn "0 W/m^2";
	Sh "0 W/m^2";
	Sg "0 W/m^2";
	Wd "0 deg";
	Ws "0 m/2";
	Td "0 degC";
	Tw "0 degC";
	RH "0 %";
	PW "0 in";
	HI "0 degF";
}
object bus
{
	name "wecc240_psse_N_1201";
	latitude "35.985019";
	longitude "-111.090655";
	rng_state "1189641421";
	guid "610241442110246D1C361C2E680E3286";
	bus_i "10";
	S "320.932-19.9533j MVA";
	type "PQREF";
	Pd "320.932 MW";
	Qd "-19.9533 MVAr";
	Gs "0 MW";
	Bs "0 MVAr";
	area "1";
	baseKV "500 kV";
	Vm "0.0931581 pu.kV";
	Va "-169.024 deg";
	zone "3";
	Vmax "1.2 pu.kV";
	Vmin "0.8 pu.kV";
	weather_resolution "3600 s";
	Sn "0 W/m^2";
	Sh "0 W/m^2";
	Sg "0 W/m^2";
	Wd "0 deg";
	Ws "0 m/2";
	Td "0 degC";
	Tw "0 degC";
	RH "0 %";
	PW "0 in";
	HI "0 degF";
}
object bus
{
	name "wecc240_psse_N_1202";
	latitude "36.961002";
	longitude "-110.864429";
	rng_state "1025202362";
	guid "4D817A25F6E07E745D08368AE9D1186";
	bus_i "11";
	S "1684.42-59.0523j MVA";
	type "PQREF";
	Pd "1684.42 MW";
	Qd "-59.0523 MVAr";
	Gs "0 MW";
	Bs "0 MVAr";
	area "1";
	baseKV "500 kV";
	Vm "1.00731 pu.kV";
	Va "-93.0734 deg";
	zone "3";
	Vmax "1.2 pu.kV";
	Vmin "0.8 pu.kV";
	weather_resolution "3600 s";
	Sn "0 W/m^2";
	Sh "0 W/m^2";
	Sg "0 W/m^2";
	Wd "0 deg";
	Ws "0 m/2";
	Td "0 degC";
	Tw "0 degC";
	RH "0 %";
	PW "0 in";
	HI "0 degF";
}
object bus
{
	name "wecc240_psse_N_1232";
	latitude "36.961002";
	longitude "-110.864429";
	rng_state "1350490027";
	guid "1EF6DEFCA4E8E73975E884951FF973F5";
	bus_i "12";
	S "0+0j MVA";
	type "PV";
	Pd "0 MW";
	Qd "0 MVAr";
	Gs "0 MW";
	Bs "0 MVAr";
	area "1";
	baseKV "20 kV";
	Vm "1.08 pu.kV";
	Va "-92.3172 deg";
	zone "3";
	Vmax "1.2 pu.kV";
	Vmin "0.8 pu.kV";
	weather_resolution "3600 s";
	Sn "0 W/m^2";
	Sh "0 W/m^2";
	Sg "0 W/m^2";
	Wd "0 deg";
	Ws "0 m/2";
	Td "0 degC";
	Tw "0 degC";
	RH "0 %";
	PW "0 in";
	HI "0 degF";
}
object bus
{
	name "wecc240_psse_N_1301";
	latitude "35.929472";
	longitude "-114.835922";
	rng_state "783368690";
	guid "1710D6AB3F72198A3FDF529C2F54E268";
	bus_i "13";
	S "5252.77-463.475j MVA";
	type "PQREF";
	Pd "5252.77 MW";
	Qd "-463.475 MVAr";
	Gs "0 MW";
	Bs "0 MVAr";
	area "1";
	baseKV "500 kV";
	Vm "0.0203628 pu.kV";
	Va "-135.894 deg";
	zone "3";
	Vmax "1.2 pu.kV";
	Vmin "0.8 pu.kV";
	weather_resolution "3600 s";
	Sn "0 W/m^2";
	Sh "0 W/m^2";
	Sg "0 W/m^2";
	Wd "0 deg";
	Ws "0 m/2";
	Td "0 degC";
	Tw "0 degC";
	RH "0 %";
	PW "0 in";
	HI "0 degF";
}
object bus
{
	name "wecc240_psse_N_1302";
	latitude "36.649771";
	longitude "-115.134207";
	rng_state "1102520059";
	guid "453F40B6ED6B05769A2CBB3A85D4D36";
	bus_i "14";
	S "34.2325-3.08724j MVA";
	type "PQREF";
	Pd "34.2325 MW";
	Qd "-3.08724 MVAr";
	Gs "0 MW";
	Bs "0 MVAr";
	area "1";
	baseKV "500 kV";
	Vm "0.142428 pu.kV";
	Va "-103.051 deg";
	zone "9";
	Vmax "1.2 pu.kV";
	Vmin "0.8 pu.kV";
	weather_resolution "3600 s";
	Sn "0 W/m^2";
	Sh "0 W/m^2";
	Sg "0 W/m^2";
	Wd "0 deg";
	Ws "0 m/2";
	Td "0 degC";
	Tw "0 degC";
	RH "0 %";
	PW "0 in";
	HI "0 degF";
}
object bus
{
	name "wecc240_psse_N_1303";
	latitude "36.649771";
	longitude "-115.134207";
	rng_state "2044897763";
	guid "671C13FBCC19EC9F6BB627DC24BEF64D";
	bus_i "15";
	S "12220.3-1637.48j MVA";
	type "PQREF";
	Pd "12220.3 MW";
	Qd "-1637.48 MVAr";
	Gs "0 MW";
	Bs "0 MVAr";
	area "1";
	baseKV "345 kV";
	Vm "0.0331007 pu.kV";
	Va "-99.8675 deg";
	zone "9";
	Vmax "1.2 pu.kV";
	Vmin "0.8 pu.kV";
	weather_resolution "3600 s";
	Sn "0 W/m^2";
	Sh "0 W/m^2";
	Sg "0 W/m^2";
	Wd "0 deg";
	Ws "0 m/2";
	Td "0 degC";
	Tw "0 degC";
	RH "0 %";
	PW "0 in";
	HI "0 degF";
}
object bus
{
	name "wecc240_psse_N_1331";
	latitude "35.929472";
	longitude "-114.835922";
	rng_state "1967513926";
	guid "13C04FC4B66C784CC71B8B297681A67";
	bus_i "16";
	S "0+0j MVA";
	type "PV";
	Pd "0 MW";
	Qd "0 MVAr";
	Gs "0 MW";
	Bs "0 MVAr";
	area "1";
	baseKV "20 kV";
	Vm "1.045 pu.kV";
	Va "-59.1325 deg";
	zone "3";
	Vmax "1.2 pu.kV";
	Vmin "0.8 pu.kV";
	weather_resolution "3600 s";
	Sn "0 W/m^2";
	Sh "0 W/m^2";
	Sg "0 W/m^2";
	Wd "0 deg";
	Ws "0 m/2";
	Td "0 degC";
	Tw "0 degC";
	RH "0 %";
	PW "0 in";
	HI "0 degF";
}
object bus
{
	name "wecc240_psse_N_1333";
	latitude "36.649771";
	longitude "-115.134207";
	rng_state "1365180540";
	guid "7CCFF75A05199A2E55B04ADD02D55105";
	bus_i "17";
	S "0+0j MVA";
	type "PV";
	Pd "0 MW";
	Qd "0 MVAr";
	Gs "0 MW";
	Bs "0 MVAr";
	area "1";
	baseKV "20 kV";
	Vm "1.005 pu.kV";
	Va "-145.447 deg";
	zone "9";
	Vmax "1.2 pu.kV";
	Vmin "0.8 pu.kV";
	weather_resolution "3600 s";
	Sn "0 W/m^2";
	Sh "0 W/m^2";
	Sg "0 W/m^2";
	Wd "0 deg";
	Ws "0 m/2";
	Td "0 degC";
	Tw "0 degC";
	RH "0 %";
	PW "0 in";
	HI "0 degF";
}
object bus
{
	name "wecc240_psse_N_1401";
	latitude "33.513802";
	longitude "-113.239936";
	rng_state "1540383426";
	guid "10E4B7F2F927075424225AA270DDD19";
	bus_i "18";
	S "12634.2-1667.52j MVA";
	type "PQREF";
	Pd "12634.2 MW";
	Qd "-1667.52 MVAr";
	Gs "0 MW";
	Bs "0 MVAr";
	area "1";
	baseKV "500 kV";
	Vm "0.0414994 pu.kV";
	Va "-60.3458 deg";
	zone "3";
	Vmax "1.2 pu.kV";
	Vmin "0.8 pu.kV";
	weather_resolution "3600 s";
	Sn "0 W/m^2";
	Sh "0 W/m^2";
	Sg "0 W/m^2";
	Wd "0 deg";
	Ws "0 m/2";
	Td "0 degC";
	Tw "0 degC";
	RH "0 %";
	PW "0 in";
	HI "0 degF";
}
object bus
{
	name "wecc240_psse_N_1402";
	latitude "34.067027";
	longitude "-112.396715";
	rng_state "304089172";
	guid "6992D7A9B1C3923F6E523165EC992AFD";
	bus_i "19";
	S "10111.7-1869.22j MVA";
	type "PQREF";
	Pd "10111.7 MW";
	Qd "-1869.22 MVAr";
	Gs "0 MW";
	Bs "0 MVAr";
	area "1";
	baseKV "500 kV";
	Vm "1.20709 pu.kV";
	Va "-173.277 deg";
	zone "3";
	Vmax "1.2 pu.kV";
	Vmin "0.8 pu.kV";
	weather_resolution "3600 s";
	Sn "0 W/m^2";
	Sh "0 W/m^2";
	Sg "0 W/m^2";
	Wd "0 deg";
	Ws "0 m/2";
	Td "0 degC";
	Tw "0 degC";
	RH "0 %";
	PW "0 in";
	HI "0 degF";
}
object bus
{
	name "wecc240_psse_N_1403";
	latitude "34.144722";
	longitude "-114.289722";
	rng_state "1303455736";
	guid "553A47CA6698C01B53FF78D9896C27D4";
	bus_i "20";
	S "0+0j MVA";
	type "PQREF";
	Pd "0 MW";
	Qd "0 MVAr";
	Gs "0 MW";
	Bs "0 MVAr";
	area "1";
	baseKV "230 kV";
	Vm "0.0966636 pu.kV";
	Va "-48.424 deg";
	zone "3";
	Vmax "1.2 pu.kV";
	Vmin "0.8 pu.kV";
	weather_resolution "3600 s";
	Sn "0 W/m^2";
	Sh "0 W/m^2";
	Sg "0 W/m^2";
	Wd "0 deg";
	Ws "0 m/2";
	Td "0 degC";
	Tw "0 degC";
	RH "0 %";
	PW "0 in";
	HI "0 degF";
}
object bus
{
	name "wecc240_psse_N_1431";
	latitude "33.513802";
	longitude "-113.239936";
	rng_state "35005211";
	guid "43029127B7750B5E2B730680D478AE8F";
	bus_i "21";
	S "0+0j MVA";
	type "PV";
	Pd "0 MW";
	Qd "0 MVAr";
	Gs "0 MW";
	Bs "0 MVAr";
	area "1";
	baseKV "20 kV";
	Vm "1.035 pu.kV";
	Va "-169.59 deg";
	zone "3";
	Vmax "1.2 pu.kV";
	Vmin "0.8 pu.kV";
	weather_resolution "3600 s";
	Sn "0 W/m^2";
	Sh "0 W/m^2";
	Sg "0 W/m^2";
	Wd "0 deg";
	Ws "0 m/2";
	Td "0 degC";
	Tw "0 degC";
	RH "0 %";
	PW "0 in";
	HI "0 degF";
}
object bus
{
	name "wecc240_psse_N_2000";
	latitude "32.227887";
	longitude "-115.436076";
	rng_state "521595368";
	guid "5D18CCCD3A304ED543B009EBF5630D67";
	bus_i "22";
	S "4320.26-637.039j MVA";
	type "PQREF";
	Pd "4320.26 MW";
	Qd "-637.039 MVAr";
	Gs "0 MW";
	Bs "0 MVAr";
	area "4";
	baseKV "230 kV";
	Vm "0.922328 pu.kV";
	Va "16.2942 deg";
	zone "7";
	Vmax "1.2 pu.kV";
	Vmin "0.8 pu.kV";
	weather_resolution "3600 s";
	Sn "0 W/m^2";
	Sh "0 W/m^2";
	Sg "0 W/m^2";
	Wd "0 deg";
	Ws "0 m/2";
	Td "0 degC";
	Tw "0 degC";
	RH "0 %";
	PW "0 in";
	HI "0 degF";
}
object bus
{
	name "wecc240_psse_N_2030";
	latitude "32.227887";
	longitude "-115.436076";
	rng_state "294702567";
	guid "3395F7AF0833597E57553DCB94D810FD";
	bus_i "23";
	S "0+0j MVA";
	type "PV";
	Pd "0 MW";
	Qd "0 MVAr";
	Gs "0 MW";
	Bs "0 MVAr";
	area "4";
	baseKV "20 kV";
	Vm "1 pu.kV";
	Va "17.053 deg";
	zone "7";
	Vmax "1.2 pu.kV";
	Vmin "0.8 pu.kV";
	weather_resolution "3600 s";
	Sn "0 W/m^2";
	Sh "0 W/m^2";
	Sg "0 W/m^2";
	Wd "0 deg";
	Ws "0 m/2";
	Td "0 degC";
	Tw "0 degC";
	RH "0 %";
	PW "0 in";
	HI "0 degF";
}
object bus
{
	name "wecc240_psse_N_2100";
	latitude "32.971469";
	longitude "-115.394435";
	rng_state "1726956429";
	guid "38ABBCE422CB225E9AB33DEB07E8BD";
	bus_i "24";
	S "491.583-54.5432j MVA";
	type "PQREF";
	Pd "491.583 MW";
	Qd "-54.5432 MVAr";
	Gs "0 MW";
	Bs "0 MVAr";
	area "2";
	baseKV "230 kV";
	Vm "0.00424624 pu.kV";
	Va "-70.0121 deg";
	zone "2";
	Vmax "1.2 pu.kV";
	Vmin "0.8 pu.kV";
	weather_resolution "3600 s";
	Sn "0 W/m^2";
	Sh "0 W/m^2";
	Sg "0 W/m^2";
	Wd "0 deg";
	Ws "0 m/2";
	Td "0 degC";
	Tw "0 degC";
	RH "0 %";
	PW "0 in";
	HI "0 degF";
}
object bus
{
	name "wecc240_psse_N_2130";
	latitude "32.971469";
	longitude "-115.394435";
	rng_state "336465782";
	guid "4135A4F5A91712072DC972AE80A2352E";
	bus_i "25";
	S "0+0j MVA";
	type "PV";
	Pd "0 MW";
	Qd "0 MVAr";
	Gs "0 MW";
	Bs "0 MVAr";
	area "2";
	baseKV "20 kV";
	Vm "1.035 pu.kV";
	Va "46.915 deg";
	zone "2";
	Vmax "1.2 pu.kV";
	Vmin "0.8 pu.kV";
	weather_resolution "3600 s";
	Sn "0 W/m^2";
	Sh "0 W/m^2";
	Sg "0 W/m^2";
	Wd "0 deg";
	Ws "0 m/2";
	Td "0 degC";
	Tw "0 degC";
	RH "0 %";
	PW "0 in";
	HI "0 degF";
}
object bus
{
	name "wecc240_psse_N_2201";
	latitude "32.680823";
	longitude "-116.982615";
	rng_state "861021530";
	guid "2F5D74D60C04B3D4D63CF1130237859";
	bus_i "26";
	S "0+0j MVA";
	type "PQREF";
	Pd "0 MW";
	Qd "0 MVAr";
	Gs "0 MW";
	Bs "0 MVAr";
	area "2";
	baseKV "500 kV";
	Vm "0.00108139 pu.kV";
	Va "-171.988 deg";
	zone "2";
	Vmax "1.2 pu.kV";
	Vmin "0.8 pu.kV";
	weather_resolution "3600 s";
	Sn "0 W/m^2";
	Sh "0 W/m^2";
	Sg "0 W/m^2";
	Wd "0 deg";
	Ws "0 m/2";
	Td "0 degC";
	Tw "0 degC";
	RH "0 %";
	PW "0 in";
	HI "0 degF";
}
object bus
{
	name "wecc240_psse_N_2202";
	latitude "32.680823";
	longitude "-116.982615";
	rng_state "278722862";
	guid "69E362CC50C47A11674ED39CEBA0F8F7";
	bus_i "27";
	S "2654.18-651.225j MVA";
	type "PQREF";
	Pd "2654.18 MW";
	Qd "-651.225 MVAr";
	Gs "0 MW";
	Bs "0 MVAr";
	area "2";
	baseKV "230 kV";
	Vm "7.35981 pu.kV";
	Va "-0.85545 deg";
	zone "2";
	Vmax "1.2 pu.kV";
	Vmin "0.8 pu.kV";
	weather_resolution "3600 s";
	Sn "0 W/m^2";
	Sh "0 W/m^2";
	Sg "0 W/m^2";
	Wd "0 deg";
	Ws "0 m/2";
	Td "0 degC";
	Tw "0 degC";
	RH "0 %";
	PW "0 in";
	HI "0 degF";
}
object bus
{
	name "wecc240_psse_N_2203";
	latitude "32.784153";
	longitude "-117.137829";
	rng_state "233665123";
	guid "17EFB4116B3C07FF622CE0D804BA8AD3";
	bus_i "28";
	S "2888.6-720.213j MVA";
	type "PQREF";
	Pd "2888.6 MW";
	Qd "-720.213 MVAr";
	Gs "0 MW";
	Bs "0 MVAr";
	area "2";
	baseKV "230 kV";
	Vm "0.67276 pu.kV";
	Va "57.6097 deg";
	zone "2";
	Vmax "1.2 pu.kV";
	Vmin "0.8 pu.kV";
	weather_resolution "3600 s";
	Sn "0 W/m^2";
	Sh "0 W/m^2";
	Sg "0 W/m^2";
	Wd "0 deg";
	Ws "0 m/2";
	Td "0 degC";
	Tw "0 degC";
	RH "0 %";
	PW "0 in";
	HI "0 degF";
}
object bus
{
	name "wecc240_psse_N_2233";
	latitude "32.784153";
	longitude "-117.137829";
	rng_state "2145174067";
	guid "365571651E0FE426523259522B2C1E63";
	bus_i "29";
	S "0+0j MVA";
	type "PV";
	Pd "0 MW";
	Qd "0 MVAr";
	Gs "0 MW";
	Bs "0 MVAr";
	area "2";
	baseKV "20 kV";
	Vm "1.005 pu.kV";
	Va "-113.858 deg";
	zone "2";
	Vmax "1.2 pu.kV";
	Vmin "0.8 pu.kV";
	weather_resolution "3600 s";
	Sn "0 W/m^2";
	Sh "0 W/m^2";
	Sg "0 W/m^2";
	Wd "0 deg";
	Ws "0 m/2";
	Td "0 degC";
	Tw "0 degC";
	RH "0 %";
	PW "0 in";
	HI "0 degF";
}
object bus
{
	name "wecc240_psse_N_2301";
	latitude "32.856407";
	longitude "-115.564590";
	rng_state "468703135";
	guid "4D9B3D61FF96887844B52A740F8F67B9";
	bus_i "30";
	S "0+0j MVA";
	type "PQREF";
	Pd "0 MW";
	Qd "0 MVAr";
	Gs "0 MW";
	Bs "0 MVAr";
	area "2";
	baseKV "500 kV";
	Vm "0.0180769 pu.kV";
	Va "136.404 deg";
	zone "2";
	Vmax "1.2 pu.kV";
	Vmin "0.8 pu.kV";
	weather_resolution "3600 s";
	Sn "0 W/m^2";
	Sh "0 W/m^2";
	Sg "0 W/m^2";
	Wd "0 deg";
	Ws "0 m/2";
	Td "0 degC";
	Tw "0 degC";
	RH "0 %";
	PW "0 in";
	HI "0 degF";
}
object bus
{
	name "wecc240_psse_N_2302";
	latitude "32.856407";
	longitude "-115.564590";
	rng_state "1101513929";
	guid "6299E989E64E22EB19B00A1F8E90B943";
	bus_i "31";
	S "0+0j MVA";
	type "PQREF";
	Pd "0 MW";
	Qd "0 MVAr";
	Gs "0 MW";
	Bs "0 MVAr";
	area "2";
	baseKV "230 kV";
	Vm "0.00217253 pu.kV";
	Va "-101.489 deg";
	zone "2";
	Vmax "1.2 pu.kV";
	Vmin "0.8 pu.kV";
	weather_resolution "3600 s";
	Sn "0 W/m^2";
	Sh "0 W/m^2";
	Sg "0 W/m^2";
	Wd "0 deg";
	Ws "0 m/2";
	Td "0 degC";
	Tw "0 degC";
	RH "0 %";
	PW "0 in";
	HI "0 degF";
}
object bus
{
	name "wecc240_psse_N_2332";
	latitude "32.856407";
	longitude "-115.564590";
	rng_state "1801979802";
	guid "19F434F5159CF9E71C7D6D6B828DB5EF";
	bus_i "32";
	S "0+0j MVA";
	type "PV";
	Pd "0 MW";
	Qd "0 MVAr";
	Gs "0 MW";
	Bs "0 MVAr";
	area "2";
	baseKV "20 kV";
	Vm "1.035 pu.kV";
	Va "-60.0113 deg";
	zone "2";
	Vmax "1.2 pu.kV";
	Vmin "0.8 pu.kV";
	weather_resolution "3600 s";
	Sn "0 W/m^2";
	Sh "0 W/m^2";
	Sg "0 W/m^2";
	Wd "0 deg";
	Ws "0 m/2";
	Td "0 degC";
	Tw "0 degC";
	RH "0 %";
	PW "0 in";
	HI "0 degF";
}
object bus
{
	name "wecc240_psse_N_2400";
	latitude "33.927377";
	longitude "-116.575220";
	rng_state "1315634022";
	guid "3CB07ADA9BFA8E485B108919CF8AEF6F";
	bus_i "33";
	S "1460.04-258.43j MVA";
	type "PQREF";
	Pd "1460.04 MW";
	Qd "-258.43 MVAr";
	Gs "0 MW";
	Bs "0 MVAr";
	area "2";
	baseKV "500 kV";
	Vm "2.65711 pu.kV";
	Va "121.769 deg";
	zone "2";
	Vmax "1.2 pu.kV";
	Vmin "0.8 pu.kV";
	weather_resolution "3600 s";
	Sn "0 W/m^2";
	Sh "0 W/m^2";
	Sg "0 W/m^2";
	Wd "0 deg";
	Ws "0 m/2";
	Td "0 degC";
	Tw "0 degC";
	RH "0 %";
	PW "0 in";
	HI "0 degF";
}
object bus
{
	name "wecc240_psse_N_2401";
	latitude "34.369347";
	longitude "-117.368876";
	rng_state "635723058";
	guid "1215137CAB518CD418E01832F76AAFE8";
	bus_i "34";
	S "1528.4-188.066j MVA";
	type "PQREF";
	Pd "1528.4 MW";
	Qd "-188.066 MVAr";
	Gs "0 MW";
	Bs "0 MVAr";
	area "2";
	baseKV "500 kV";
	Vm "2.56641 pu.kV";
	Va "-136.102 deg";
	zone "2";
	Vmax "1.2 pu.kV";
	Vmin "0.8 pu.kV";
	weather_resolution "3600 s";
	Sn "0 W/m^2";
	Sh "0 W/m^2";
	Sg "0 W/m^2";
	Wd "0 deg";
	Ws "0 m/2";
	Td "0 degC";
	Tw "0 degC";
	RH "0 %";
	PW "0 in";
	HI "0 degF";
}
object bus
{
	name "wecc240_psse_N_2402";
	latitude "34.008174";
	longitude "-117.564527";
	rng_state "1369133069";
	guid "5933C61E4D1F751328CB31607AD3E91B";
	bus_i "35";
	S "1870.66-301.072j MVA";
	type "PQREF";
	Pd "1870.66 MW";
	Qd "-301.072 MVAr";
	Gs "0 MW";
	Bs "0 MVAr";
	area "2";
	baseKV "500 kV";
	Vm "3.49415 pu.kV";
	Va "22.8748 deg";
	zone "2";
	Vmax "1.2 pu.kV";
	Vmin "0.8 pu.kV";
	weather_resolution "3600 s";
	Sn "0 W/m^2";
	Sh "0 W/m^2";
	Sg "0 W/m^2";
	Wd "0 deg";
	Ws "0 m/2";
	Td "0 degC";
	Tw "0 degC";
	RH "0 %";
	PW "0 in";
	HI "0 degF";
}
object bus
{
	name "wecc240_psse_N_2403";
	latitude "33.796667";
	longitude "-117.224444";
	rng_state "1125898167";
	guid "123CE65EAA791B9E37371F6A84036C52";
	bus_i "36";
	S "1803.23-361.862j MVA";
	type "PQREF";
	Pd "1803.23 MW";
	Qd "-361.862 MVAr";
	Gs "0 MW";
	Bs "0 MVAr";
	area "2";
	baseKV "500 kV";
	Vm "5.29608 pu.kV";
	Va "-114.763 deg";
	zone "2";
	Vmax "1.2 pu.kV";
	Vmin "0.8 pu.kV";
	weather_resolution "3600 s";
	Sn "0 W/m^2";
	Sh "0 W/m^2";
	Sg "0 W/m^2";
	Wd "0 deg";
	Ws "0 m/2";
	Td "0 degC";
	Tw "0 degC";
	RH "0 %";
	PW "0 in";
	HI "0 degF";
}
object bus
{
	name "wecc240_psse_N_2404";
	latitude "34.488498";
	longitude "-118.121470";
	rng_state "1059961393";
	guid "3DF2937539E22D091BA4FD67D097AB5B";
	bus_i "37";
	S "0+0j MVA";
	type "PQREF";
	Pd "0 MW";
	Qd "0 MVAr";
	Gs "0 MW";
	Bs "0 MVAr";
	area "2";
	baseKV "500 kV";
	Vm "1.90072 pu.kV";
	Va "72.2477 deg";
	zone "2";
	Vmax "1.2 pu.kV";
	Vmin "0.8 pu.kV";
	weather_resolution "3600 s";
	Sn "0 W/m^2";
	Sh "0 W/m^2";
	Sg "0 W/m^2";
	Wd "0 deg";
	Ws "0 m/2";
	Td "0 degC";
	Tw "0 degC";
	RH "0 %";
	PW "0 in";
	HI "0 degF";
}
object bus
{
	name "wecc240_psse_N_2405";
	latitude "34.317296";
	longitude "-118.495046";
	rng_state "2089018456";
	guid "3F700BFF7B35801F26FBC32086F84AEE";
	bus_i "38";
	S "1463.29-142.241j MVA";
	type "PQREF";
	Pd "1463.29 MW";
	Qd "-142.241 MVAr";
	Gs "0 MW";
	Bs "0 MVAr";
	area "2";
	baseKV "230 kV";
	Vm "0.203184 pu.kV";
	Va "-128.271 deg";
	zone "2";
	Vmax "1.2 pu.kV";
	Vmin "0.8 pu.kV";
	weather_resolution "3600 s";
	Sn "0 W/m^2";
	Sh "0 W/m^2";
	Sg "0 W/m^2";
	Wd "0 deg";
	Ws "0 m/2";
	Td "0 degC";
	Tw "0 degC";
	RH "0 %";
	PW "0 in";
	HI "0 degF";
}
object bus
{
	name "wecc240_psse_N_2406";
	latitude "34.150436";
	longitude "-118.184526";
	rng_state "628175011";
	guid "229024968309BE4D11D07A299D02F940";
	bus_i "39";
	S "1301.01-171.582j MVA";
	type "PQREF";
	Pd "1301.01 MW";
	Qd "-171.582 MVAr";
	Gs "0 MW";
	Bs "0 MVAr";
	area "2";
	baseKV "230 kV";
	Vm "0.734859 pu.kV";
	Va "-45.183 deg";
	zone "2";
	Vmax "1.2 pu.kV";
	Vmin "0.8 pu.kV";
	weather_resolution "3600 s";
	Sn "0 W/m^2";
	Sh "0 W/m^2";
	Sg "0 W/m^2";
	Wd "0 deg";
	Ws "0 m/2";
	Td "0 degC";
	Tw "0 degC";
	RH "0 %";
	PW "0 in";
	HI "0 degF";
}
object bus
{
	name "wecc240_psse_N_2407";
	latitude "33.879856";
	longitude "-118.175222";
	rng_state "1656478042";
	guid "2F1CABFC6E8033422BE28010AC20DE25";
	bus_i "40";
	S "3076.73-559.982j MVA";
	type "PQREF";
	Pd "3076.73 MW";
	Qd "-559.982 MVAr";
	Gs "0 MW";
	Bs "0 MVAr";
	area "2";
	baseKV "230 kV";
	Vm "0.390711 pu.kV";
	Va "-126.683 deg";
	zone "2";
	Vmax "1.2 pu.kV";
	Vmin "0.8 pu.kV";
	weather_resolution "3600 s";
	Sn "0 W/m^2";
	Sh "0 W/m^2";
	Sg "0 W/m^2";
	Wd "0 deg";
	Ws "0 m/2";
	Td "0 degC";
	Tw "0 degC";
	RH "0 %";
	PW "0 in";
	HI "0 degF";
}
object bus
{
	name "wecc240_psse_N_2408";
	latitude "34.037233";
	longitude "-118.110120";
	rng_state "1131176229";
	guid "6728E319F064C1E83C0F066B88B14E99";
	bus_i "41";
	S "3103.87-250.246j MVA";
	type "PQREF";
	Pd "3103.87 MW";
	Qd "-250.246 MVAr";
	Gs "0 MW";
	Bs "0 MVAr";
	area "2";
	baseKV "230 kV";
	Vm "0.960443 pu.kV";
	Va "-50.9317 deg";
	zone "2";
	Vmax "1.2 pu.kV";
	Vmin "0.8 pu.kV";
	weather_resolution "3600 s";
	Sn "0 W/m^2";
	Sh "0 W/m^2";
	Sg "0 W/m^2";
	Wd "0 deg";
	Ws "0 m/2";
	Td "0 degC";
	Tw "0 degC";
	RH "0 %";
	PW "0 in";
	HI "0 degF";
}
object bus
{
	name "wecc240_psse_N_2409";
	latitude "34.008174";
	longitude "-117.564527";
	rng_state "1653377373";
	guid "54B22B7680AD04D51E006CDFA9053AF4";
	bus_i "42";
	S "2777.87-464.052j MVA";
	type "PQREF";
	Pd "2777.87 MW";
	Qd "-464.052 MVAr";
	Gs "0 MW";
	Bs "0 MVAr";
	area "2";
	baseKV "230 kV";
	Vm "0.0022948 pu.kV";
	Va "-121.403 deg";
	zone "2";
	Vmax "1.2 pu.kV";
	Vmin "0.8 pu.kV";
	weather_resolution "3600 s";
	Sn "0 W/m^2";
	Sh "0 W/m^2";
	Sg "0 W/m^2";
	Wd "0 deg";
	Ws "0 m/2";
	Td "0 degC";
	Tw "0 degC";
	RH "0 %";
	PW "0 in";
	HI "0 degF";
}
object bus
{
	name "wecc240_psse_N_2410";
	latitude "34.442694";
	longitude "-118.588440";
	rng_state "859484421";
	guid "60EBAAAE4F648E4718D09E0161461563";
	bus_i "43";
	S "2785.98-360.561j MVA";
	type "PQREF";
	Pd "2785.98 MW";
	Qd "-360.561 MVAr";
	Gs "0 MW";
	Bs "0 MVAr";
	area "2";
	baseKV "230 kV";
	Vm "0.449926 pu.kV";
	Va "-16.2999 deg";
	zone "2";
	Vmax "1.2 pu.kV";
	Vmin "0.8 pu.kV";
	weather_resolution "3600 s";
	Sn "0 W/m^2";
	Sh "0 W/m^2";
	Sg "0 W/m^2";
	Wd "0 deg";
	Ws "0 m/2";
	Td "0 degC";
	Tw "0 degC";
	RH "0 %";
	PW "0 in";
	HI "0 degF";
}
object bus
{
	name "wecc240_psse_N_2411";
	latitude "34.488498";
	longitude "-118.121470";
	rng_state "1914544919";
	guid "554ADD45F3EA17CF27E74358316A8D29";
	bus_i "44";
	S "1919.11-193.746j MVA";
	type "PQREF";
	Pd "1919.11 MW";
	Qd "-193.746 MVAr";
	Gs "0 MW";
	Bs "0 MVAr";
	area "2";
	baseKV "230 kV";
	Vm "0.00156695 pu.kV";
	Va "-75.2936 deg";
	zone "2";
	Vmax "1.2 pu.kV";
	Vmin "0.8 pu.kV";
	weather_resolution "3600 s";
	Sn "0 W/m^2";
	Sh "0 W/m^2";
	Sg "0 W/m^2";
	Wd "0 deg";
	Ws "0 m/2";
	Td "0 degC";
	Tw "0 degC";
	RH "0 %";
	PW "0 in";
	HI "0 degF";
}
object bus
{
	name "wecc240_psse_N_2431";
	latitude "34.369347";
	longitude "-117.368876";
	rng_state "608413784";
	guid "1CC0EF66E991A0F07D51710DD9C855B9";
	bus_i "45";
	S "0+0j MVA";
	type "PV";
	Pd "0 MW";
	Qd "0 MVAr";
	Gs "0 MW";
	Bs "0 MVAr";
	area "2";
	baseKV "20 kV";
	Vm "1.05 pu.kV";
	Va "-135.951 deg";
	zone "2";
	Vmax "1.2 pu.kV";
	Vmin "0.8 pu.kV";
	weather_resolution "3600 s";
	Sn "0 W/m^2";
	Sh "0 W/m^2";
	Sg "0 W/m^2";
	Wd "0 deg";
	Ws "0 m/2";
	Td "0 degC";
	Tw "0 degC";
	RH "0 %";
	PW "0 in";
	HI "0 degF";
}
object bus
{
	name "wecc240_psse_N_2434";
	latitude "34.488498";
	longitude "-118.121470";
	rng_state "756898537";
	guid "61402E3942B3541362C855C1A3C9467C";
	bus_i "46";
	S "0+0j MVA";
	type "PV";
	Pd "0 MW";
	Qd "0 MVAr";
	Gs "0 MW";
	Bs "0 MVAr";
	area "2";
	baseKV "20 kV";
	Vm "1.02 pu.kV";
	Va "-92.5782 deg";
	zone "2";
	Vmax "1.2 pu.kV";
	Vmin "0.8 pu.kV";
	weather_resolution "3600 s";
	Sn "0 W/m^2";
	Sh "0 W/m^2";
	Sg "0 W/m^2";
	Wd "0 deg";
	Ws "0 m/2";
	Td "0 degC";
	Tw "0 degC";
	RH "0 %";
	PW "0 in";
	HI "0 degF";
}
object bus
{
	name "wecc240_psse_N_2438";
	latitude "34.037233";
	longitude "-118.110120";
	rng_state "1734575198";
	guid "37E2FFEA93064F354CBD873643442DB4";
	bus_i "47";
	S "0+0j MVA";
	type "PV";
	Pd "0 MW";
	Qd "0 MVAr";
	Gs "0 MW";
	Bs "0 MVAr";
	area "2";
	baseKV "20 kV";
	Vm "1.009 pu.kV";
	Va "-49.4923 deg";
	zone "2";
	Vmax "1.2 pu.kV";
	Vmin "0.8 pu.kV";
	weather_resolution "3600 s";
	Sn "0 W/m^2";
	Sh "0 W/m^2";
	Sg "0 W/m^2";
	Wd "0 deg";
	Ws "0 m/2";
	Td "0 degC";
	Tw "0 degC";
	RH "0 %";
	PW "0 in";
	HI "0 degF";
}
object bus
{
	name "wecc240_psse_N_2439";
	latitude "34.008174";
	longitude "-117.564527";
	rng_state "1973594324";
	guid "33D98D65EA6614237090AFFEEDDCB71F";
	bus_i "48";
	S "0+0j MVA";
	type "PV";
	Pd "0 MW";
	Qd "0 MVAr";
	Gs "0 MW";
	Bs "0 MVAr";
	area "2";
	baseKV "20 kV";
	Vm "1.02 pu.kV";
	Va "60.0022 deg";
	zone "2";
	Vmax "1.2 pu.kV";
	Vmin "0.8 pu.kV";
	weather_resolution "3600 s";
	Sn "0 W/m^2";
	Sh "0 W/m^2";
	Sg "0 W/m^2";
	Wd "0 deg";
	Ws "0 m/2";
	Td "0 degC";
	Tw "0 degC";
	RH "0 %";
	PW "0 in";
	HI "0 degF";
}
object bus
{
	name "wecc240_psse_N_2501";
	latitude "33.828436";
	longitude "-117.790130";
	rng_state "149798315";
	guid "6E85A3C2D0FB7EFF7D4CAEF7BD3FBCBC";
	bus_i "49";
	S "0+0j MVA";
	type "PQREF";
	Pd "0 MW";
	Qd "0 MVAr";
	Gs "0 MW";
	Bs "0 MVAr";
	area "2";
	baseKV "500 kV";
	Vm "8.39647 pu.kV";
	Va "3.65104 deg";
	zone "2";
	Vmax "1.2 pu.kV";
	Vmin "0.8 pu.kV";
	weather_resolution "3600 s";
	Sn "0 W/m^2";
	Sh "0 W/m^2";
	Sg "0 W/m^2";
	Wd "0 deg";
	Ws "0 m/2";
	Td "0 degC";
	Tw "0 degC";
	RH "0 %";
	PW "0 in";
	HI "0 degF";
}
object bus
{
	name "wecc240_psse_N_2502";
	latitude "33.828436";
	longitude "-117.790130";
	rng_state "2038664370";
	guid "58DE50558DB4F0AE340CA4E42912F4FE";
	bus_i "50";
	S "4074.19-786.626j MVA";
	type "PQREF";
	Pd "4074.19 MW";
	Qd "-786.626 MVAr";
	Gs "0 MW";
	Bs "0 MVAr";
	area "2";
	baseKV "230 kV";
	Vm "0.569978 pu.kV";
	Va "-168.171 deg";
	zone "2";
	Vmax "1.2 pu.kV";
	Vmin "0.8 pu.kV";
	weather_resolution "3600 s";
	Sn "0 W/m^2";
	Sh "0 W/m^2";
	Sg "0 W/m^2";
	Wd "0 deg";
	Ws "0 m/2";
	Td "0 degC";
	Tw "0 degC";
	RH "0 %";
	PW "0 in";
	HI "0 degF";
}
object bus
{
	name "wecc240_psse_N_2503";
	latitude "33.370212";
	longitude "-117.557619";
	rng_state "1129566413";
	guid "72558D983E8CC5B67F8CE5E213E0D";
	bus_i "51";
	S "3169.73-664.325j MVA";
	type "PQREF";
	Pd "3169.73 MW";
	Qd "-664.325 MVAr";
	Gs "0 MW";
	Bs "0 MVAr";
	area "2";
	baseKV "230 kV";
	Vm "0.116179 pu.kV";
	Va "-117.375 deg";
	zone "2";
	Vmax "1.2 pu.kV";
	Vmin "0.8 pu.kV";
	weather_resolution "3600 s";
	Sn "0 W/m^2";
	Sh "0 W/m^2";
	Sg "0 W/m^2";
	Wd "0 deg";
	Ws "0 m/2";
	Td "0 degC";
	Tw "0 degC";
	RH "0 %";
	PW "0 in";
	HI "0 degF";
}
object bus
{
	name "wecc240_psse_N_2533";
	latitude "33.370212";
	longitude "-117.557619";
	rng_state "184803526";
	guid "5840D351EF2C1902470607796F0B8340";
	bus_i "52";
	S "0+0j MVA";
	type "PV";
	Pd "0 MW";
	Qd "0 MVAr";
	Gs "0 MW";
	Bs "0 MVAr";
	area "2";
	baseKV "20 kV";
	Vm "1.009 pu.kV";
	Va "175.747 deg";
	zone "2";
	Vmax "1.2 pu.kV";
	Vmin "0.8 pu.kV";
	weather_resolution "3600 s";
	Sn "0 W/m^2";
	Sh "0 W/m^2";
	Sg "0 W/m^2";
	Wd "0 deg";
	Ws "0 m/2";
	Td "0 degC";
	Tw "0 degC";
	RH "0 %";
	PW "0 in";
	HI "0 degF";
}
object bus
{
	name "wecc240_psse_N_2600";
	latitude "34.552197";
	longitude "-117.437004";
	rng_state "412776091";
	guid "BA7594A23BAE4C27AC1FE90D3ED6DA3";
	bus_i "53";
	S "-3250.36+273.633j MVA";
	type "PQREF";
	Pd "-3250.36 MW";
	Qd "273.633 MVAr";
	Gs "0 MW";
	Bs "0 MVAr";
	area "2";
	baseKV "500 kV";
	Vm "0.142466 pu.kV";
	Va "33.5228 deg";
	zone "2";
	Vmax "1.2 pu.kV";
	Vmin "0.8 pu.kV";
	weather_resolution "3600 s";
	Sn "0 W/m^2";
	Sh "0 W/m^2";
	Sg "0 W/m^2";
	Wd "0 deg";
	Ws "0 m/2";
	Td "0 degC";
	Tw "0 degC";
	RH "0 %";
	PW "0 in";
	HI "0 degF";
}
object bus
{
	name "wecc240_psse_N_2601";
	latitude "34.285768";
	longitude "-118.484219";
	rng_state "1424268980";
	guid "67B2159E43AFEC734E655023661EE0FC";
	bus_i "54";
	S "0+0j MVA";
	type "PQREF";
	Pd "0 MW";
	Qd "0 MVAr";
	Gs "0 MW";
	Bs "0 MVAr";
	area "2";
	baseKV "500 kV";
	Vm "0.092192 pu.kV";
	Va "111.251 deg";
	zone "2";
	Vmax "1.2 pu.kV";
	Vmin "0.8 pu.kV";
	weather_resolution "3600 s";
	Sn "0 W/m^2";
	Sh "0 W/m^2";
	Sg "0 W/m^2";
	Wd "0 deg";
	Ws "0 m/2";
	Td "0 degC";
	Tw "0 degC";
	RH "0 %";
	PW "0 in";
	HI "0 degF";
}
object bus
{
	name "wecc240_psse_N_2602";
	latitude "34.176429";
	longitude "-118.360306";
	rng_state "1911759956";
	guid "7CF8EE9762E5038A57F3698FC825E97";
	bus_i "55";
	S "175.821-14.5825j MVA";
	type "PQREF";
	Pd "175.821 MW";
	Qd "-14.5825 MVAr";
	Gs "0 MW";
	Bs "0 MVAr";
	area "2";
	baseKV "500 kV";
	Vm "0.722009 pu.kV";
	Va "-177.151 deg";
	zone "2";
	Vmax "1.2 pu.kV";
	Vmin "0.8 pu.kV";
	weather_resolution "3600 s";
	Sn "0 W/m^2";
	Sh "0 W/m^2";
	Sg "0 W/m^2";
	Wd "0 deg";
	Ws "0 m/2";
	Td "0 degC";
	Tw "0 degC";
	RH "0 %";
	PW "0 in";
	HI "0 degF";
}
object bus
{
	name "wecc240_psse_N_2603";
	latitude "34.565195";
	longitude "-117.321570";
	rng_state "749241873";
	guid "425211BC5CF38BA24C51EE0005E9C8A5";
	bus_i "56";
	S "0+0j MVA";
	type "PQREF";
	Pd "0 MW";
	Qd "0 MVAr";
	Gs "0 MW";
	Bs "0 MVAr";
	area "2";
	baseKV "500 kV";
	Vm "0.0130764 pu.kV";
	Va "137.541 deg";
	zone "2";
	Vmax "1.2 pu.kV";
	Vmin "0.8 pu.kV";
	weather_resolution "3600 s";
	Sn "0 W/m^2";
	Sh "0 W/m^2";
	Sg "0 W/m^2";
	Wd "0 deg";
	Ws "0 m/2";
	Td "0 degC";
	Tw "0 degC";
	RH "0 %";
	PW "0 in";
	HI "0 degF";
}
object bus
{
	name "wecc240_psse_N_2604";
	latitude "39.500381";
	longitude "-112.580826";
	rng_state "137806862";
	guid "36B0DEE4805A8E061950930BF6438758";
	bus_i "57";
	S "3634.57-107.501j MVA";
	type "PQREF";
	Pd "3634.57 MW";
	Qd "-107.501 MVAr";
	Gs "0 MW";
	Bs "0 MVAr";
	area "2";
	baseKV "345 kV";
	Vm "0.00217808 pu.kV";
	Va "91.6332 deg";
	zone "2";
	Vmax "1.2 pu.kV";
	Vmin "0.8 pu.kV";
	weather_resolution "3600 s";
	Sn "0 W/m^2";
	Sh "0 W/m^2";
	Sg "0 W/m^2";
	Wd "0 deg";
	Ws "0 m/2";
	Td "0 degC";
	Tw "0 degC";
	RH "0 %";
	PW "0 in";
	HI "0 degF";
}
object bus
{
	name "wecc240_psse_N_2605";
	latitude "34.015353";
	longitude "-118.204015";
	rng_state "42999170";
	guid "464111A62C0D6A57104D041613B48E26";
	bus_i "58";
	S "0+0j MVA";
	type "PQREF";
	Pd "0 MW";
	Qd "0 MVAr";
	Gs "0 MW";
	Bs "0 MVAr";
	area "2";
	baseKV "287 kV";
	Vm "0.0551174 pu.kV";
	Va "25.5647 deg";
	zone "2";
	Vmax "1.2 pu.kV";
	Vmin "0.8 pu.kV";
	weather_resolution "3600 s";
	Sn "0 W/m^2";
	Sh "0 W/m^2";
	Sg "0 W/m^2";
	Wd "0 deg";
	Ws "0 m/2";
	Td "0 degC";
	Tw "0 degC";
	RH "0 %";
	PW "0 in";
	HI "0 degF";
}
object bus
{
	name "wecc240_psse_N_2606";
	latitude "34.015353";
	longitude "-118.204015";
	rng_state "982906996";
	guid "D31A7C8004B1CC34296AD1A288AD92B";
	bus_i "59";
	S "0+0j MVA";
	type "PQREF";
	Pd "0 MW";
	Qd "0 MVAr";
	Gs "0 MW";
	Bs "0 MVAr";
	area "2";
	baseKV "287 kV";
	Vm "0.0952056 pu.kV";
	Va "-54.3869 deg";
	zone "2";
	Vmax "1.2 pu.kV";
	Vmin "0.8 pu.kV";
	weather_resolution "3600 s";
	Sn "0 W/m^2";
	Sh "0 W/m^2";
	Sg "0 W/m^2";
	Wd "0 deg";
	Ws "0 m/2";
	Td "0 degC";
	Tw "0 degC";
	RH "0 %";
	PW "0 in";
	HI "0 degF";
}
object bus
{
	name "wecc240_psse_N_2607";
	latitude "34.565195";
	longitude "-117.321570";
	rng_state "135497281";
	guid "78463F161BE916A0655AD295D704C95F";
	bus_i "60";
	S "0+0j MVA";
	type "PQREF";
	Pd "0 MW";
	Qd "0 MVAr";
	Gs "0 MW";
	Bs "0 MVAr";
	area "2";
	baseKV "287 kV";
	Vm "0.0774738 pu.kV";
	Va "7.05497 deg";
	zone "2";
	Vmax "1.2 pu.kV";
	Vmin "0.8 pu.kV";
	weather_resolution "3600 s";
	Sn "0 W/m^2";
	Sh "0 W/m^2";
	Sg "0 W/m^2";
	Wd "0 deg";
	Ws "0 m/2";
	Td "0 degC";
	Tw "0 degC";
	RH "0 %";
	PW "0 in";
	HI "0 degF";
}
object bus
{
	name "wecc240_psse_N_2608";
	latitude "34.589863";
	longitude "-118.663274";
	rng_state "511702305";
	guid "398F8131F6F9BC3F257CBC49C4237333";
	bus_i "61";
	S "176.171-14.5617j MVA";
	type "PQREF";
	Pd "176.171 MW";
	Qd "-14.5617 MVAr";
	Gs "0 MW";
	Bs "0 MVAr";
	area "2";
	baseKV "230 kV";
	Vm "0.000687034 pu.kV";
	Va "143.15 deg";
	zone "2";
	Vmax "1.2 pu.kV";
	Vmin "0.8 pu.kV";
	weather_resolution "3600 s";
	Sn "0 W/m^2";
	Sh "0 W/m^2";
	Sg "0 W/m^2";
	Wd "0 deg";
	Ws "0 m/2";
	Td "0 degC";
	Tw "0 degC";
	RH "0 %";
	PW "0 in";
	HI "0 degF";
}
object bus
{
	name "wecc240_psse_N_2609";
	latitude "34.146111";
	longitude "-118.255000";
	rng_state "2084420925";
	guid "D6FAFBEC3CAE6E01E1B0C198616DA26";
	bus_i "62";
	S "240.46-16.1802j MVA";
	type "PQREF";
	Pd "240.46 MW";
	Qd "-16.1802 MVAr";
	Gs "0 MW";
	Bs "0 MVAr";
	area "2";
	baseKV "230 kV";
	Vm "0.144601 pu.kV";
	Va "-96.8875 deg";
	zone "2";
	Vmax "1.2 pu.kV";
	Vmin "0.8 pu.kV";
	weather_resolution "3600 s";
	Sn "0 W/m^2";
	Sh "0 W/m^2";
	Sg "0 W/m^2";
	Wd "0 deg";
	Ws "0 m/2";
	Td "0 degC";
	Tw "0 degC";
	RH "0 %";
	PW "0 in";
	HI "0 degF";
}
object bus
{
	name "wecc240_psse_N_2610";
	latitude "33.697565";
	longitude "-117.911364";
	rng_state "1937477084";
	guid "62397FA7D74456D5251D999E3BD4AC79";
	bus_i "63";
	S "177.773+10.1374j MVA";
	type "PQREF";
	Pd "177.773 MW";
	Qd "10.1374 MVAr";
	Gs "0 MW";
	Bs "0 MVAr";
	area "2";
	baseKV "230 kV";
	Vm "0.00868935 pu.kV";
	Va "-39.2437 deg";
	zone "2";
	Vmax "1.2 pu.kV";
	Vmin "0.8 pu.kV";
	weather_resolution "3600 s";
	Sn "0 W/m^2";
	Sh "0 W/m^2";
	Sg "0 W/m^2";
	Wd "0 deg";
	Ws "0 m/2";
	Td "0 degC";
	Tw "0 degC";
	RH "0 %";
	PW "0 in";
	HI "0 degF";
}
object bus
{
	name "wecc240_psse_N_2611";
	latitude "34.311310";
	longitude "-118.455696";
	rng_state "1827336327";
	guid "1AB02D9271C4A9C81EEB56EBEA5FD8F7";
	bus_i "64";
	S "176.121-14.8589j MVA";
	type "PQREF";
	Pd "176.121 MW";
	Qd "-14.8589 MVAr";
	Gs "0 MW";
	Bs "0 MVAr";
	area "2";
	baseKV "230 kV";
	Vm "0.000209995 pu.kV";
	Va "-92.4204 deg";
	zone "2";
	Vmax "1.2 pu.kV";
	Vmin "0.8 pu.kV";
	weather_resolution "3600 s";
	Sn "0 W/m^2";
	Sh "0 W/m^2";
	Sg "0 W/m^2";
	Wd "0 deg";
	Ws "0 m/2";
	Td "0 degC";
	Tw "0 degC";
	RH "0 %";
	PW "0 in";
	HI "0 degF";
}
object bus
{
	name "wecc240_psse_N_2612";
	latitude "34.285768";
	longitude "-118.484219";
	rng_state "572660336";
	guid "599112905924772C58A40EF734EA5AF4";
	bus_i "65";
	S "213.173-18.7205j MVA";
	type "PQREF";
	Pd "213.173 MW";
	Qd "-18.7205 MVAr";
	Gs "0 MW";
	Bs "0 MVAr";
	area "2";
	baseKV "230 kV";
	Vm "0.364362 pu.kV";
	Va "-178.262 deg";
	zone "2";
	Vmax "1.2 pu.kV";
	Vmin "0.8 pu.kV";
	weather_resolution "3600 s";
	Sn "0 W/m^2";
	Sh "0 W/m^2";
	Sg "0 W/m^2";
	Wd "0 deg";
	Ws "0 m/2";
	Td "0 degC";
	Tw "0 degC";
	RH "0 %";
	PW "0 in";
	HI "0 degF";
}
object bus
{
	name "wecc240_psse_N_2613";
	latitude "34.037697";
	longitude "-118.230212";
	rng_state "1159126505";
	guid "A82FAFD0D502E296093A43BD081754";
	bus_i "66";
	S "573.143-21.0604j MVA";
	type "PQREF";
	Pd "573.143 MW";
	Qd "-21.0604 MVAr";
	Gs "0 MW";
	Bs "0 MVAr";
	area "2";
	baseKV "230 kV";
	Vm "0.0212185 pu.kV";
	Va "-143.795 deg";
	zone "2";
	Vmax "1.2 pu.kV";
	Vmin "0.8 pu.kV";
	weather_resolution "3600 s";
	Sn "0 W/m^2";
	Sh "0 W/m^2";
	Sg "0 W/m^2";
	Wd "0 deg";
	Ws "0 m/2";
	Td "0 degC";
	Tw "0 degC";
	RH "0 %";
	PW "0 in";
	HI "0 degF";
}
object bus
{
	name "wecc240_psse_N_2614";
	latitude "34.015353";
	longitude "-118.204015";
	rng_state "805750846";
	guid "328F1E71F8254BAC6E66B2316F94A2E3";
	bus_i "67";
	S "245.985-12.433j MVA";
	type "PQREF";
	Pd "245.985 MW";
	Qd "-12.433 MVAr";
	Gs "0 MW";
	Bs "0 MVAr";
	area "2";
	baseKV "230 kV";
	Vm "0.0125892 pu.kV";
	Va "-38.5025 deg";
	zone "2";
	Vmax "1.2 pu.kV";
	Vmin "0.8 pu.kV";
	weather_resolution "3600 s";
	Sn "0 W/m^2";
	Sh "0 W/m^2";
	Sg "0 W/m^2";
	Wd "0 deg";
	Ws "0 m/2";
	Td "0 degC";
	Tw "0 degC";
	RH "0 %";
	PW "0 in";
	HI "0 degF";
}
object bus
{
	name "wecc240_psse_N_2615";
	latitude "34.176429";
	longitude "-118.360306";
	rng_state "1632621729";
	guid "7885D322D1BBF90811ADB7803B7EC41E";
	bus_i "68";
	S "1432.04-114.854j MVA";
	type "PQREF";
	Pd "1432.04 MW";
	Qd "-114.854 MVAr";
	Gs "0 MW";
	Bs "0 MVAr";
	area "2";
	baseKV "230 kV";
	Vm "0.446294 pu.kV";
	Va "-48.4729 deg";
	zone "2";
	Vmax "1.2 pu.kV";
	Vmin "0.8 pu.kV";
	weather_resolution "3600 s";
	Sn "0 W/m^2";
	Sh "0 W/m^2";
	Sg "0 W/m^2";
	Wd "0 deg";
	Ws "0 m/2";
	Td "0 degC";
	Tw "0 degC";
	RH "0 %";
	PW "0 in";
	HI "0 degF";
}
object bus
{
	name "wecc240_psse_N_2616";
	latitude "34.015353";
	longitude "-118.204015";
	rng_state "1100661313";
	guid "4B61F32689F3CB501D098C7E2785CEBF";
	bus_i "69";
	S "209.313-8.26799j MVA";
	type "PQREF";
	Pd "209.313 MW";
	Qd "-8.26799 MVAr";
	Gs "0 MW";
	Bs "0 MVAr";
	area "2";
	baseKV "230 kV";
	Vm "0.152267 pu.kV";
	Va "155.88 deg";
	zone "2";
	Vmax "1.2 pu.kV";
	Vmin "0.8 pu.kV";
	weather_resolution "3600 s";
	Sn "0 W/m^2";
	Sh "0 W/m^2";
	Sg "0 W/m^2";
	Wd "0 deg";
	Ws "0 m/2";
	Td "0 degC";
	Tw "0 degC";
	RH "0 %";
	PW "0 in";
	HI "0 degF";
}
object bus
{
	name "wecc240_psse_N_2617";
	latitude "34.109480";
	longitude "-118.254629";
	rng_state "1433925857";
	guid "131E662C609C1E696430CF7173D1B862";
	bus_i "70";
	S "216.072-11.8061j MVA";
	type "PQREF";
	Pd "216.072 MW";
	Qd "-11.8061 MVAr";
	Gs "0 MW";
	Bs "0 MVAr";
	area "2";
	baseKV "230 kV";
	Vm "0.062045 pu.kV";
	Va "-168.949 deg";
	zone "2";
	Vmax "1.2 pu.kV";
	Vmin "0.8 pu.kV";
	weather_resolution "3600 s";
	Sn "0 W/m^2";
	Sh "0 W/m^2";
	Sg "0 W/m^2";
	Wd "0 deg";
	Ws "0 m/2";
	Td "0 degC";
	Tw "0 degC";
	RH "0 %";
	PW "0 in";
	HI "0 degF";
}
object bus
{
	name "wecc240_psse_N_2618";
	latitude "34.234263";
	longitude "-118.550256";
	rng_state "1141616124";
	guid "6E0E5E2C6CC6BAA542A1CD9B6C612E69";
	bus_i "71";
	S "1563.57-151.491j MVA";
	type "PQREF";
	Pd "1563.57 MW";
	Qd "-151.491 MVAr";
	Gs "0 MW";
	Bs "0 MVAr";
	area "2";
	baseKV "230 kV";
	Vm "0.142752 pu.kV";
	Va "177.987 deg";
	zone "2";
	Vmax "1.2 pu.kV";
	Vmin "0.8 pu.kV";
	weather_resolution "3600 s";
	Sn "0 W/m^2";
	Sh "0 W/m^2";
	Sg "0 W/m^2";
	Wd "0 deg";
	Ws "0 m/2";
	Td "0 degC";
	Tw "0 degC";
	RH "0 %";
	PW "0 in";
	HI "0 degF";
}
object bus
{
	name "wecc240_psse_N_2619";
	latitude "34.317296";
	longitude "-118.495046";
	rng_state "84353895";
	guid "231A9178AC787F454627338CC9600F6C";
	bus_i "72";
	S "-4928.79+420.44j MVA";
	type "PQREF";
	Pd "-4928.79 MW";
	Qd "420.44 MVAr";
	Gs "0 MW";
	Bs "0 MVAr";
	area "2";
	baseKV "230 kV";
	Vm "0.362145 pu.kV";
	Va "45.1883 deg";
	zone "2";
	Vmax "1.2 pu.kV";
	Vmin "0.8 pu.kV";
	weather_resolution "3600 s";
	Sn "0 W/m^2";
	Sh "0 W/m^2";
	Sg "0 W/m^2";
	Wd "0 deg";
	Ws "0 m/2";
	Td "0 degC";
	Tw "0 degC";
	RH "0 %";
	PW "0 in";
	HI "0 degF";
}
object bus
{
	name "wecc240_psse_N_2620";
	latitude "33.796667";
	longitude "-117.224444";
	rng_state "939819582";
	guid "270E18D7CDF92E5951CECB0DF250C802";
	bus_i "73";
	S "362.428-31.9592j MVA";
	type "PQREF";
	Pd "362.428 MW";
	Qd "-31.9592 MVAr";
	Gs "0 MW";
	Bs "0 MVAr";
	area "2";
	baseKV "230 kV";
	Vm "0.843399 pu.kV";
	Va "-9.95872 deg";
	zone "2";
	Vmax "1.2 pu.kV";
	Vmin "0.8 pu.kV";
	weather_resolution "3600 s";
	Sn "0 W/m^2";
	Sh "0 W/m^2";
	Sg "0 W/m^2";
	Wd "0 deg";
	Ws "0 m/2";
	Td "0 degC";
	Tw "0 degC";
	RH "0 %";
	PW "0 in";
	HI "0 degF";
}
object bus
{
	name "wecc240_psse_N_2621";
	latitude "34.015353";
	longitude "-118.204015";
	rng_state "2001100545";
	guid "594993E53B207E1B689633A31329130";
	bus_i "74";
	S "419.953-25.5169j MVA";
...